/batch
/config,noeldb,1     ! force off writing results to database
*get,_wallstrt,active,,time,wall
! ANSYS input file written by Workbench version 2021 R2
! File used for geometry attach: C:\Users\lenovo\OneDrive\Desktop\MECH 491\Stepfiles\update_leg.stp
/title,cam_analays--Static Structural (C5)
! ****** Begin Custom Load Command Snippet ******
/COM, ACT Extensions:
/COM,     LSDYNA, 2021.1
/COM,     5f463412-bd3e-484b-87e7-cbc0a665e474, wbex
/COM,
! ****** End   Custom Load Command Snippet ******
*DIM,_wb_ProjectScratch_dir,string,248
_wb_ProjectScratch_dir(1) = 'C:\Users\lenovo\OneDrive\Desktop\MECH 491\Ansys\_ProjectScratch\ScrA780\'
*DIM,_wb_SolverFiles_dir,string,248
_wb_SolverFiles_dir(1) = 'C:\Users\lenovo\OneDrive\Desktop\MECH 491\Ansys\cam_analays_files\dp0\SYS-2\MECH\'
*DIM,_wb_userfiles_dir,string,248
_wb_userfiles_dir(1) = 'C:\Users\lenovo\OneDrive\Desktop\MECH 491\Ansys\cam_analays_files\user_files\'
/com,--- Data in consistent MKS units. See Solving Units in the help system for more information.
/units,MKS
/nopr
/wb,file,start              !  signify a WB generated input file
/prep7
! Turn off shape checking because checks already performed inside WB mesher.
! See help system for more information.
SHPP,OFF,,NOWARN
/nolist
etcon,set             ! allow ANSYS to choose best KEYOP's for 180x elements, resets any applicable keyopt to MAPDL defaults
/com,*********** Nodes for the whole assembly ***********
nblock,3,,13433
(1i9,3e20.9e3)
        1     0.000000000E+00     8.000000000E-02    -2.500000000E-03
        2     2.500000000E-03     8.000000000E-02     1.530808499E-19
        3     0.000000000E+00     8.000000000E-02     2.500000000E-03
        4    -2.500000000E-03     8.000000000E-02     1.530808499E-19
        5     1.767766953E-03     8.000000000E-02    -1.767766953E-03
        6     2.309698831E-03     8.000000000E-02    -9.567085809E-04
        7     2.451963201E-03     8.000000000E-02    -4.877258050E-04
        8     2.078674031E-03     8.000000000E-02    -1.388925583E-03
        9     9.567085809E-04     8.000000000E-02    -2.309698831E-03
       10     1.388925583E-03     8.000000000E-02    -2.078674031E-03
       11     4.877258050E-04     8.000000000E-02    -2.451963201E-03
       12     1.767766953E-03     8.000000000E-02     1.767766953E-03
       13     9.567085809E-04     8.000000000E-02     2.309698831E-03
       14     4.877258050E-04     8.000000000E-02     2.451963201E-03
       15     1.388925583E-03     8.000000000E-02     2.078674031E-03
       16     2.309698831E-03     8.000000000E-02     9.567085809E-04
       17     2.078674031E-03     8.000000000E-02     1.388925583E-03
       18     2.451963201E-03     8.000000000E-02     4.877258050E-04
       19    -1.767766953E-03     8.000000000E-02     1.767766953E-03
       20    -2.309698831E-03     8.000000000E-02     9.567085809E-04
! ... 12193 like lines cut
/wb,elem,start            !  set before creation of elements
/com,*********** Elements for Body 1 "update_leg-FreeParts|update_leg" ***********
et,1,187
eblock,19,solid,,6306
(19i9)
        1        1        1        1        0        0        0        0       10        0        1      479     1786     2063     2034     4928    11451     4931     4930
    11450    12207
        1        1        1        1        0        0        0        0       10        0        2      477      479     2063     2034     4913     4931     4920     4919
     4930    12207
        1        1        1        1        0        0        0        0       10        0        3     1850     2063     1904     2034    11687    11961    11682    11686
    12207    11960
        1        1        1        1        0        0        0        0       10        0        4     1850     1904     2063     2029    11682    11961    11687    11685
    11959    12206
        1        1        1        1        0        0        0        0       10        0        5     1786     1904     2063     2034    11448    11961    11451    11450
    11960    12207
        1        1        1        1        0        0        0        0       10        0        6     1850     2063     1893     2029    11687    11907    11681    11685
    12206    11906
        1        1        1        1        0        0        0        0       10        0        7     1552     1850     2063     1893    10434    11687    10436    10435
    11681    11907
        1        1        1        1        0        0        0        0       10        0        8      477     2063     1552     1850     4920    10436     4915     4917
    11687    10434
        1        1        1        1        0        0        0        0       10        0        9      477     1553     1552     2063     4916    10432     4915     4920
    10438    10436
        1        1        1        1        0        0        0        0       10        0       10      477     2063     1850     2034     4920    11687     4917     4919
    12207    11686
! ... 12593 like lines cut
!Material Id = {E157F0CD-2854-4C1A-BBB7-241362ACEBF3}
/wb,elem,end               !  done creating elements
/com,*********** Send User Defined Coordinate System(s) ***********
csys,0
toffst,273.15,  ! Temperature offset from absolute zero
/com,*********** Set Reference Temperature ***********
tref,22.
/wb,mat,start              !  starting to send materials
/com,*********** Send Materials ***********
Temperature = 'TEMP' ! Temperature
MP,DENS,1,7850,	! kg m^-3
MP,ALPX,1,1.2e-05,	! C^-1
MP,C,1,434,	! J kg^-1 C^-1
MP,KXX,1,60.5,	! W m^-1 C^-1
MP,RSVX,1,1.7e-07,	! kg m^3 A^-2 s^-3
MP,EX,1,200000000000,	! Pa
MP,NUXY,1,0.3,
MP,MURX,1,10000,
MP,UVID,1,14d18fb1-f753-4f00-a46b-3f5d5ede941a
MP,UMID,1,59002a79-71c2-428e-906b-55d7dbee100e

/wb,mat,end                !  done sending materials
!************************* Model Summary ********************
!update_leg-FreeParts|update_leg,	Structural Steel,	matid,	1
!************************* End Model Summary ********************
! get the diagonal of the bounding box. Needed later for other things
*get,_xmin,node,,mnloc,x
*get,_ymin,node,,mnloc,y
*get,_zmin,node,,mnloc,z
*get,_xmax,node,,mxloc,x
*get,_ymax,node,,mxloc,y
*get,_zmax,node,,mxloc,z
_ASMDIAG=(_xmax-_xmin)*(_xmax-_xmin)+(_ymax-_ymin)*(_ymax-_ymin)+(_zmax-_zmin)*(_zmax-_zmin)
_ASMDIAG=SQRT(_ASMDIAG)
/wb,contact,start          !  starting to send contact
/wb,contact,end            !  done creating contacts
/golist
/wb,load,start             !  starting to send loads
/com,*********** Fixed Supports ***********
CMBLOCK,_FIXEDSU,NODE,      718
(8i10)
       659       660       661       662       663       664       665       666
       667       668       669       670       671       672       673       674
       675       676       677       678       679       680       681       682
       683       684       685       686       687       688       689       690
       691       692       693       694       695       696       697       698
       699       700       701       702       703       704       705       706
       707       708       709       710       711       712       713       714
       715       716       717       718       719       720       721       722
       723       724       725       726       727       728       729       730
       731       732       733       734       735       736       737       738
       739       740       741       742       743       744       745       746
       747       748       749       750       751       752       753       754
       755       756       757       758       759       760       761       762
       763       764       765       766       767       768       769       770
       771       772       773       774       775       776       777       778
       779       780       781       782       976       977       978       979
       980       981       982       983       984       985       986       987
       988       989       990       991       992       993       994       995
       996       997       998       999      1000      1001      1002      1003
      1004      1005      1006      1007      1008      1009      1010      1011
! ... 70 like lines cut
cmsel,s,_FIXEDSU
d,all,all
nsel,all
/com,*********** Define Force Using Surface Effect Elements ***********
local,12,0,0.,0.,0.,0.,0.,0.
csys,0
et,2,154
eblock,10,,,248
(15i9)
     9841        2        2        2       12      157      183     1628     1628     2919     3106     1628     2922
     9842        2        2        2       12     1635     1640     1650     1650    10779    10811     1650    10780
     9843        2        2        2       12     1639     1641     1658     1658    10805    10818     1658    10807
     9844        2        2        2       12     1636     1658     1654     1654    10788    10882     1654    10787
     9845        2        2        2       12     1631     1638     1644     1644    10752    10799     1644    10754
     9846        2        2        2       12     1630     1636     1645     1645    10745    10786     1645    10746
     9847        2        2        2       12     1628     1647     1632     1632    10728    10760     1632    10725
     9848        2        2        2       12     1637     1643     1656     1656    10793    10831     1656    10794
     9849        2        2        2       12     1631     1649     1639     1639    10755    10806     1639    10753
     9850        2        2        2       12     1629     1643     1637     1637    10737    10793     1637    10736
     9851        2        2        2       12     1636     1654     1645     1645    10787    10842     1645    10786
     9852        2        2        2       12     1638     1655     1644     1644    10800    10836     1644    10799
     9853        2        2        2       12     1630     1648     1634     1634    10747    10774     1634    10744
     9854        2        2        2       12     1633     1659     1653     1653    10768    10878     1653    10767
     9855        2        2        2       12     1643     1655     1656     1656    10830    10886     1656    10831
     9856        2        2        2       12     1634     1642     1659     1659    10773    10824     1659    10775
     9857        2        2        2       12     1629     1635     1650     1650    10735    10780     1650    10738
     9858        2        2        2       12      167     1629      168      168     2999     3005      168     2994
     9859        2        2        2       12     1638     1656     1655     1655    10801    10886     1655    10800
     9860        2        2        2       12     1628     1646     1651     1651    10727    10848     1651    10729
! ... 229 like lines cut
esel,s,type,,2
keyop,2,2,1                ! Apply load in local coordinate system
keyop,2,7,1                ! Use original area so load is constant in large deformation
esel,all
/gst,on,on
fini
*get,_numnode,node,0,count
*get,_numelem,elem,0,count
*get, _MAXELEMNUM, elem, 0, NUM, MAX
*get, _MAXNODENUM, node, 0, NUM, MAX
*get, _MAXELEMTYPE, etyp, 0, NUM, MAX
*get, _MAXREALCONST, real, 0, NUM, MAX
/go
/wb,load,end               !  done creating loads
/com,--- Number of total nodes = %_numnode%
/com,--- Number of contact elements = 248
/com,--- Number of spring elements = 0
/com,--- Number of bearing elements = 0
/com,--- Number of solid elements = 6306
/com,--- Number of condensed parts = 0
/com,--- Number of total elements = %_numelem%
*get,_wallbsol,active,,time,wall
/com,****************************************************************************
/com,*************************    SOLUTION       ********************************
/com,****************************************************************************
/solu
antype,0                   ! static analysis
_thickRatio=  1     ! Ratio of thick parts in the model
eqsl,pcg,1e-8,,,,,,1
cntr,print,1               ! print out contact info and also make no initial contact an error
dmpoption,emat,no             ! Don't combine emat file for DANSYS
dmpoption,esav,no             ! Don't combine esav file for DANSYS
nldiag,cont,iter           ! print out contact info each equilibrium iteration
rescontrol,,none                 ! Do not keep any restart files
/com,****************************************************
/com,******************* SOLVE FOR LS 1 OF 1 ****************
esel,s,type,,2
nsle
sfe,all,1,pres,1,0.
sfe,all,2,pres,1,-186147.173508977
sfe,all,3,pres,1,0.
nsel,all
esel,all
/nopr
/gopr
nsub,1,1,1
time,1.
outres,erase
outres,all,none
outres,nsol,all,
outres,rsol,all
outres,eangl,all
outres,etmp,all
outres,veng,all
outres,strs,all,
outres,epel,all,
outres,eppl,all,
outres,cont,all,
! *********** WB SOLVE COMMAND ***********
! check interactive state
*get,ANSINTER_,active,,int
*if,ANSINTER_,ne,0,then
/eof
*endif
solve
/com *************** Write FE CONNECTORS ********* 
CEWRITE,file,ce,,INTE
/com,****************************************************
/com,*************** FINISHED SOLVE FOR LS 1 *************
*get,_wallasol,active,,time,wall
/nopr
*get,_numnode,node,0,count
*get,_numelem,elem,0,count
*get, _MAXELEMNUM, elem, 0, NUM, MAX
*get, _MAXNODENUM, node, 0, NUM, MAX,,,INTERNAL
*get, _MAXELEMTYPE, etyp, 0, NUM, MAX
*get, _MAXREALCONST, real, 0, NUM, MAX
/gopr
*get,_PCGITER,active,,solu,cgiter
/post1
xmlo,ENCODING,ISO-8859-1
xmlo,parm
/xml,parm,xml
fini
/gopr
*get,_walldone,active,,time,wall
_preptime=(_wallbsol-_wallstrt)*3600
_solvtime=(_wallasol-_wallbsol)*3600
_posttime=(_walldone-_wallasol)*3600
_totaltim=(_walldone-_wallstrt)*3600
*get,_dlbratio,active,0,solu,dlbr
*get,_combtime,active,0,solu,comb
*get,_ssmode,active,0,solu,ssmm
*get,_ndofs,active,0,solu,ndof
/com,--- Total number of nodes = %_numnode%
/com,--- Total number of elements = %_numelem%
/com,--- Element load balance ratio = %_dlbratio%
/com,--- Time to combine distributed files = %_combtime%
/com,--- Sparse memory mode = %_ssmode%
/com,--- Number of DOF = %_ndofs%
/wb,file,end               ! done with WB generated input
