/batch
/config,noeldb,1     ! force off writing results to database
*get,_wallstrt,active,,time,wall
! ANSYS input file written by Workbench version 2021 R2
! File used for geometry attach: C:\Users\lenovo\Downloads\cameren.stp
/title,cam_analays--Static Structural (A5)
! ****** Begin Custom Load Command Snippet ******
/COM, ACT Extensions:
/COM,     LSDYNA, 2021.1
/COM,     5f463412-bd3e-484b-87e7-cbc0a665e474, wbex
/COM,
! ****** End   Custom Load Command Snippet ******
*DIM,_wb_ProjectScratch_dir,string,248
_wb_ProjectScratch_dir(1) = 'C:\Users\lenovo\OneDrive\Desktop\MECH 491\Ansys\_ProjectScratch\ScrBA34\'
*DIM,_wb_SolverFiles_dir,string,248
_wb_SolverFiles_dir(1) = 'C:\Users\lenovo\OneDrive\Desktop\MECH 491\Ansys\cam_analays_files\dp0\SYS\MECH\'
*DIM,_wb_userfiles_dir,string,248
_wb_userfiles_dir(1) = 'C:\Users\lenovo\OneDrive\Desktop\MECH 491\Ansys\cam_analays_files\user_files\'
/com,--- Data in consistent MKS units. See Solving Units in the help system for more information.
/units,MKS
/nopr
/wb,file,start              !  signify a WB generated input file
/prep7
! Turn off shape checking because checks already performed inside WB mesher.
! See help system for more information.
SHPP,OFF,,NOWARN
/nolist
etcon,set             ! allow ANSYS to choose best KEYOP's for 180x elements, resets any applicable keyopt to MAPDL defaults
/com,*********** Nodes for the whole assembly ***********
nblock,3,,6406
(1i9,3e20.9e3)
        1     8.500000000E-02     1.040949779E-17    -2.250000000E-03
        2     8.500000000E-02     1.040949779E-17     1.300000000E-02
        3     8.500000000E-02     1.040949779E-17     5.375000000E-03
        4     8.485281381E-02    -4.999998930E-03    -2.250000000E-03
        5     8.485281381E-02    -4.999998930E-03     1.300000000E-02
        6     8.485281381E-02    -4.999998930E-03     5.375000000E-03
        7     7.224903413E-03    -2.026077991E-03     1.300000000E-02
        8     1.409028432E-02     8.281424808E-04     1.300000000E-02
        9     7.155102097E-03    -2.248224627E-03     1.300000000E-02
       10     1.134701819E-02    -8.394469027E-03     1.300000000E-02
       11     7.762334586E-03    -1.178847293E-02     1.300000000E-02
       12     9.990915862E-03    -1.220038686E-02     1.300000000E-02
       13     1.163662469E-02    -1.064221805E-02     1.300000000E-02
       14     1.857816696E-03    -7.269988891E-03     1.300000000E-02
       15     1.630531408E-03    -7.320612497E-03     1.300000000E-02
       16    -1.596314331E-03    -1.402404053E-02     1.300000000E-02
       17    -6.327949733E-03    -1.261661541E-02     1.300000000E-02
       18    -5.570387024E-03    -1.475258037E-02     1.300000000E-02
       19    -3.398118837E-03    -1.539872162E-02     1.300000000E-02
       20    -5.367086717E-03    -5.243910900E-03     1.300000000E-02
! ... 5805 like lines cut
/wb,elem,start            !  set before creation of elements
/com,*********** Elements for Body 1 "cameren-FreeParts|cameren" ***********
et,1,187
eblock,19,solid,,3062
(19i9)
        1        1        1        1        0        0        0        0       10        0        1      580      927      952      943     4504     5804     4506     4505
     5803     5814
        1        1        1        1        0        0        0        0       10        0        2      783      952      927      943     5261     5804     5258     5259
     5814     5803
        1        1        1        1        0        0        0        0       10        0        3      573      580      952      943     4454     4506     4461     4459
     4505     5814
        1        1        1        1        0        0        0        0       10        0        4      783      847      952      950     5254     5536     5261     5260
     5535     5818
        1        1        1        1        0        0        0        0       10        0        5      240      952      783      847     2541     5261     2538     2539
     5536     5254
        1        1        1        1        0        0        0        0       10        0        6      573      952      847      950     4461     5536     4458     4460
     5818     5535
        1        1        1        1        0        0        0        0       10        0        7      240      573      952      847     2535     4461     2541     2539
     4458     5536
        1        1        1        1        0        0        0        0       10        0        8      781      812      951      892     5228     5422     5236     5234
     5420     5727
        1        1        1        1        0        0        0        0       10        0        9      781      951      889      892     5236     5721     5233     5234
     5727     5718
        1        1        1        1        0        0        0        0       10        0       10      781      951      795      889     5236     5330     5225     5233
     5721     5326
! ... 6105 like lines cut
!Material Id = {6DD65375-F648-44F8-AFA5-2B9537C067A1}
/wb,elem,end               !  done creating elements
/com,*********** Send User Defined Coordinate System(s) ***********
csys,0
toffst,273.15,  ! Temperature offset from absolute zero
/com,*********** Set Reference Temperature ***********
tref,22.
/wb,mat,start              !  starting to send materials
/com,*********** Send Materials ***********
MP,DENS,1,1250,	! kg m^-3
MP,ALPX,1,0.000135,	! C^-1
MP,EX,1,3450000000,	! Pa
MP,NUXY,1,0.39,
MP,KXX,1,0.144,	! W m^-1 C^-1
MP,UVID,1,8e4111fe-350a-4d04-b858-f534aac7418e

/wb,mat,end                !  done sending materials
!************************* Model Summary ********************
!cameren-FreeParts|cameren,	PLA FILAMENT,	matid,	1
!************************* End Model Summary ********************
! get the diagonal of the bounding box. Needed later for other things
*get,_xmin,node,,mnloc,x
*get,_ymin,node,,mnloc,y
*get,_zmin,node,,mnloc,z
*get,_xmax,node,,mxloc,x
*get,_ymax,node,,mxloc,y
*get,_zmax,node,,mxloc,z
_ASMDIAG=(_xmax-_xmin)*(_xmax-_xmin)+(_ymax-_ymin)*(_ymax-_ymin)+(_zmax-_zmin)*(_zmax-_zmin)
_ASMDIAG=SQRT(_ASMDIAG)
/wb,contact,start          !  starting to send contact
/wb,contact,end            !  done creating contacts
/golist
/wb,load,start             !  starting to send loads
/com,*********** Fixed Supports ***********
CMBLOCK,_FIXEDSU,NODE,      804
(8i10)
         7         8         9        10        11        12        13        14
        15        16        17        18        19        20        21        22
        23        24        25        26        27        28        29        30
        31        32        33        34        35        36        37        38
        39        40        41        42       213       214       215       216
       217       218       219       220       221       222       223       224
       225       226       227       228       229       230       231       232
       233       234       235       236       237       238       239       240
       241       242       243       244       245       246       247       248
       249       250       251       252       253       254       255       256
       401       402       403       404       405       406       407       408
       409       410       411       412       413       414       415       416
       417       418       419       420       421       422       423       424
       445       446       447       448       449       450       451       452
       453       454       455       456       457       458       459       460
       461       462       463       464       465       466       467       468
       469       470       471       472       473       474       475       476
       477       478       479       480       481       482       483       484
       485       486       487       488       489       490       491       492
       493       494       495       496       497       498       499       500
! ... 81 like lines cut
cmsel,s,_FIXEDSU
d,all,all
nsel,all
/com,*********** Define Force Using Surface Effect Elements ***********
local,12,0,0.,0.,0.,0.,0.,0.
csys,0
et,2,154
eblock,10,,,10
(15i9)
     4715        2        2        2       12       89      206      430      430     1525     2289      430     1527
     4716        2        2        2       12      206      205      430      430     2280     2283      430     2289
     4717        2        2        2       12      205      207      435      435     2281     2294      435     2284
     4718        2        2        2       12      207      148      435      435     1963     1964      435     2294
     4719        2        2        2       12      209      118      430      430     1851     1852      430     2306
     4720        2        2        2       12      208      209      430      430     2300     2306      430     2302
     4721        2        2        2       12      210      208      435      435     2301     2303      435     2308
     4722        2        2        2       12      147      210      435      435     1959     2308      435     1960
     4723        2        2        2       12      430      205      208      208     2283     2282      208     2302
     4724        2        2        2       12      205      435      208      208     2284     2303      208     2282
-1
esel,s,type,,2
keyop,2,2,1                ! Apply load in local coordinate system
keyop,2,7,1                ! Use original area so load is constant in large deformation
esel,all
/gst,on,on
fini
*get,_numnode,node,0,count
*get,_numelem,elem,0,count
*get, _MAXELEMNUM, elem, 0, NUM, MAX
*get, _MAXNODENUM, node, 0, NUM, MAX
*get, _MAXELEMTYPE, etyp, 0, NUM, MAX
*get, _MAXREALCONST, real, 0, NUM, MAX
/go
/wb,load,end               !  done creating loads
/com,--- Number of total nodes = %_numnode%
/com,--- Number of contact elements = 10
/com,--- Number of spring elements = 0
/com,--- Number of bearing elements = 0
/com,--- Number of solid elements = 3062
/com,--- Number of condensed parts = 0
/com,--- Number of total elements = %_numelem%
*get,_wallbsol,active,,time,wall
/com,****************************************************************************
/com,*************************    SOLUTION       ********************************
/com,****************************************************************************
/solu
antype,0                   ! static analysis
_thickRatio=  0     ! Ratio of thick parts in the model
eqsl,sparse,,,,,1
cntr,print,1               ! print out contact info and also make no initial contact an error
dmpoption,emat,no             ! Don't combine emat file for DANSYS
dmpoption,esav,no             ! Don't combine esav file for DANSYS
nldiag,cont,iter           ! print out contact info each equilibrium iteration
rescontrol,,none                 ! Do not keep any restart files
/com,****************************************************
/com,******************* SOLVE FOR LS 1 OF 1 ****************
esel,s,type,,2
nsle
sfe,all,1,pres,1,1744991.66257531
sfe,all,2,pres,1,0.
sfe,all,3,pres,1,0.
nsel,all
esel,all
/nopr
/gopr
nsub,1,1,1
time,1.
outres,erase
outres,all,none
outres,nsol,all,
outres,rsol,all
outres,eangl,all
outres,etmp,all
outres,veng,all
outres,strs,all,
outres,epel,all,
outres,eppl,all,
outres,cont,all,
! *********** WB SOLVE COMMAND ***********
! check interactive state
*get,ANSINTER_,active,,int
*if,ANSINTER_,ne,0,then
/eof
*endif
solve
/com *************** Write FE CONNECTORS ********* 
CEWRITE,file,ce,,INTE
/com,****************************************************
/com,*************** FINISHED SOLVE FOR LS 1 *************
*get,_wallasol,active,,time,wall
/nopr
*get,_numnode,node,0,count
*get,_numelem,elem,0,count
*get, _MAXELEMNUM, elem, 0, NUM, MAX
*get, _MAXNODENUM, node, 0, NUM, MAX,,,INTERNAL
*get, _MAXELEMTYPE, etyp, 0, NUM, MAX
*get, _MAXREALCONST, real, 0, NUM, MAX
/gopr
/post1
xmlo,ENCODING,ISO-8859-1
xmlo,parm
/xml,parm,xml
fini
/gopr
*get,_walldone,active,,time,wall
_preptime=(_wallbsol-_wallstrt)*3600
_solvtime=(_wallasol-_wallbsol)*3600
_posttime=(_walldone-_wallasol)*3600
_totaltim=(_walldone-_wallstrt)*3600
*get,_dlbratio,active,0,solu,dlbr
*get,_combtime,active,0,solu,comb
*get,_ssmode,active,0,solu,ssmm
*get,_ndofs,active,0,solu,ndof
/com,--- Total number of nodes = %_numnode%
/com,--- Total number of elements = %_numelem%
/com,--- Element load balance ratio = %_dlbratio%
/com,--- Time to combine distributed files = %_combtime%
/com,--- Sparse memory mode = %_ssmode%
/com,--- Number of DOF = %_ndofs%
/wb,file,end               ! done with WB generated input
