/batch
/config,noeldb,1     ! force off writing results to database
*get,_wallstrt,active,,time,wall
! ANSYS input file written by Workbench version 2021 R2
! File used for geometry attach: C:\Users\lenovo\OneDrive\Desktop\MECH 491\Stepfiles\update_follower.stp
/title,cam_analays--Static Structural (B5)
! ****** Begin Custom Load Command Snippet ******
/COM, ACT Extensions:
/COM,     LSDYNA, 2021.1
/COM,     5f463412-bd3e-484b-87e7-cbc0a665e474, wbex
/COM,
! ****** End   Custom Load Command Snippet ******
*DIM,_wb_ProjectScratch_dir,string,248
_wb_ProjectScratch_dir(1) = 'C:\Users\lenovo\OneDrive\Desktop\MECH 491\Ansys\_ProjectScratch\Scr1BD4\'
*DIM,_wb_SolverFiles_dir,string,248
_wb_SolverFiles_dir(1) = 'C:\Users\lenovo\OneDrive\Desktop\MECH 491\Ansys\cam_analays_files\dp0\SYS-1\MECH\'
*DIM,_wb_userfiles_dir,string,248
_wb_userfiles_dir(1) = 'C:\Users\lenovo\OneDrive\Desktop\MECH 491\Ansys\cam_analays_files\user_files\'
/com,--- Data in consistent MKS units. See Solving Units in the help system for more information.
/units,MKS
/nopr
/wb,file,start              !  signify a WB generated input file
/prep7
! Turn off shape checking because checks already performed inside WB mesher.
! See help system for more information.
SHPP,OFF,,NOWARN
/nolist
etcon,set             ! allow ANSYS to choose best KEYOP's for 180x elements, resets any applicable keyopt to MAPDL defaults
/com,*********** Nodes for the whole assembly ***********
nblock,3,,3564
(1i9,3e20.9e3)
        1    -1.140640000E-01     5.500000000E-03     0.000000000E+00
        2    -1.140640000E-01    -5.500000000E-03     0.000000000E+00
        3    -1.157635935E-01     5.230810840E-03     0.000000000E+00
        4    -1.172968189E-01     4.449593469E-03     0.000000000E+00
        5    -1.185135935E-01     3.232818888E-03     0.000000000E+00
        6    -1.192948108E-01     1.699593469E-03     0.000000000E+00
        7    -1.195640000E-01     1.558023197E-18     0.000000000E+00
        8    -1.192948108E-01    -1.699593469E-03     0.000000000E+00
        9    -1.185135935E-01    -3.232818888E-03     0.000000000E+00
       10    -1.172968189E-01    -4.449593469E-03     0.000000000E+00
       11    -1.157635935E-01    -5.230810840E-03     0.000000000E+00
       12    -1.140640000E-01    -5.500000000E-03     8.000000000E-03
       13    -1.140640000E-01    -5.500000000E-03     4.000000000E-03
       14    -1.140640000E-01     5.500000000E-03     8.000000000E-03
       15    -1.157635935E-01     5.230810840E-03     8.000000000E-03
       16    -1.172968189E-01     4.449593469E-03     8.000000000E-03
       17    -1.185135935E-01     3.232818888E-03     8.000000000E-03
       18    -1.192948108E-01     1.699593469E-03     8.000000000E-03
       19    -1.195640000E-01     1.558023197E-18     8.000000000E-03
       20    -1.192948108E-01    -1.699593469E-03     8.000000000E-03
! ... 3221 like lines cut
/wb,elem,start            !  set before creation of elements
/com,*********** Elements for Body 1 "update_follower-FreeParts|update_follower" ***********
et,1,187
eblock,19,solid,,1705
(19i9)
        1        1        1        1        0        0        0        0       10        0        1       21      354      555      475      667     2443      669      668
     2442     3024
        1        1        1        1        0        0        0        0       10        0        2      354      447      555      475     2441     2892     2443     2442
     2884     3024
        1        1        1        1        0        0        0        0       10        0        3       21       22      555      354      665      676      669      667
      672     2443
        1        1        1        1        0        0        0        0       10        0        4       21      555      258      475      669     1910      666      668
     3024     1907
        1        1        1        1        0        0        0        0       10        0        5       21      258      555       22      666     1910      669      665
      671      676
        1        1        1        1        0        0        0        0       10        0        6       13      258      555      541      619     1910      624      623
     1909     3236
        1        1        1        1        0        0        0        0       10        0        7       13      555      258      439      624     1910      619      621
     2843     1905
        1        1        1        1        0        0        0        0       10        0        8       13      555      469      541      624     2982      622      623
     3236     2981
        1        1        1        1        0        0        0        0       10        0        9       13      555      439      469      624     2843      621      622
     2982     2839
        1        1        1        1        0        0        0        0       10        0       10      447      555      475      535     2892     3024     2884     2890
     3232     3022
! ... 3391 like lines cut
!Material Id = {D9695E66-C15A-4E2B-91DA-12647F2E16ED}
/wb,elem,end               !  done creating elements
/com,*********** Send User Defined Coordinate System(s) ***********
csys,0
toffst,273.15,  ! Temperature offset from absolute zero
/com,*********** Set Reference Temperature ***********
tref,22.
/wb,mat,start              !  starting to send materials
/com,*********** Send Materials ***********
MP,DENS,1,1250,	! kg m^-3
MP,ALPX,1,0.000135,	! C^-1
MP,EX,1,3450000000,	! Pa
MP,NUXY,1,0.39,
MP,KXX,1,0.144,	! W m^-1 C^-1
MP,UVID,1,b0a5f890-9cb1-41d2-96ed-f065f605549a

/wb,mat,end                !  done sending materials
!************************* Model Summary ********************
!update_follower-FreeParts|update_follower,	PLA FILAMENT,	matid,	1
!************************* End Model Summary ********************
! get the diagonal of the bounding box. Needed later for other things
*get,_xmin,node,,mnloc,x
*get,_ymin,node,,mnloc,y
*get,_zmin,node,,mnloc,z
*get,_xmax,node,,mxloc,x
*get,_ymax,node,,mxloc,y
*get,_zmax,node,,mxloc,z
_ASMDIAG=(_xmax-_xmin)*(_xmax-_xmin)+(_ymax-_ymin)*(_ymax-_ymin)+(_zmax-_zmin)*(_zmax-_zmin)
_ASMDIAG=SQRT(_ASMDIAG)
/wb,contact,start          !  starting to send contact
/wb,contact,end            !  done creating contacts
/golist
/wb,load,start             !  starting to send loads
/com,*********** Fixed Supports ***********
CMBLOCK,_FIXEDSU,NODE,      529
(8i10)
       149       150       151       152       153       154       155       156
       157       158       159       160       161       162       163       164
       165       166       167       168       169       170       171       172
       173       174       175       176       177       178       179       180
       181       182       183       184       185       186       187       188
       189       190       191       192       193       194       195       196
       197       198       199       200       201       202       203       204
       205       206       207       208       209       210       211       212
       297       298       299       300       301       302       303       304
       305       306       307       308       309       310       311       312
       313       314       315       316       317       318       319       320
       321       322       323       324       325       326       327       328
       329       330       331       332       333       334       335       336
       337       338       339       340       341       342       343       344
       345       346       347       348       349       350       351       352
       408       409       410       411       412       413       414       415
       416       417       418       419       420       421       422       423
       424       425       426       427       428      1398      1399      1400
      1405      1406      1407      1411      1412      1413      1419      1420
      1421      1424      1425      1426      1429      1430      1431      1432
! ... 47 like lines cut
cmsel,s,_FIXEDSU
d,all,all
nsel,all
/com,*********** Define Force Using Surface Effect Elements ***********
local,12,0,0.,0.,0.,0.,0.,0.
csys,0
et,2,154
eblock,10,,,140
(15i9)
     2558        2        2        2       12      123      118      259      259     1179     1181      259     1224
     2559        2        2        2       12      118      134      259      259     1180     1296      259     1181
     2560        2        2        2       12      137      120      260      260     1197     1199      260     1317
     2561        2        2        2       12      120      148      260      260     1198     1390      260     1199
     2562        2        2        2       12      214      219      261      261     1728     1752      261     1730
     2563        2        2        2       12      230      214      261      261     1729     1730      261     1792
     2564        2        2        2       12      216      233      262      262     1738     1805      262     1740
     2565        2        2        2       12      244      216      262      262     1739     1740      262     1844
     2566        2        2        2       12      121      124      263      263     1206     1231      263     1208
     2567        2        2        2       12      133      128      264      264     1255     1256      264     1290
     2568        2        2        2       12      135      138      265      265     1304     1321      265     1306
     2569        2        2        2       12      147      142      266      266     1348     1349      266     1384
     2570        2        2        2       12      220      217      267      267     1743     1745      267     1754
     2571        2        2        2       12      224      229      268      268     1770     1790      268     1771
     2572        2        2        2       12      234      231      269      269     1796     1798      269     1807
     2573        2        2        2       12      238      243      270      270     1822     1842      270     1823
     2574        2        2        2       12      125      126      263      263     1236     1244      263     1238
     2575        2        2        2       12      129      272      131      131     1265     1276      131     1264
     2576        2        2        2       12      139      140      265      265     1328     1335      265     1330
     2577        2        2        2       12      143      274      145      145     1358     1371      145     1357
! ... 121 like lines cut
esel,s,type,,2
keyop,2,2,1                ! Apply load in local coordinate system
keyop,2,7,1                ! Use original area so load is constant in large deformation
esel,all
/gst,on,on
fini
*get,_numnode,node,0,count
*get,_numelem,elem,0,count
*get, _MAXELEMNUM, elem, 0, NUM, MAX
*get, _MAXNODENUM, node, 0, NUM, MAX
*get, _MAXELEMTYPE, etyp, 0, NUM, MAX
*get, _MAXREALCONST, real, 0, NUM, MAX
/go
/wb,load,end               !  done creating loads
/com,--- Number of total nodes = %_numnode%
/com,--- Number of contact elements = 140
/com,--- Number of spring elements = 0
/com,--- Number of bearing elements = 0
/com,--- Number of solid elements = 1705
/com,--- Number of condensed parts = 0
/com,--- Number of total elements = %_numelem%
*get,_wallbsol,active,,time,wall
/com,****************************************************************************
/com,*************************    SOLUTION       ********************************
/com,****************************************************************************
/solu
antype,0                   ! static analysis
_thickRatio=  1     ! Ratio of thick parts in the model
eqsl,pcg,1e-8,,,,,,1
cntr,print,1               ! print out contact info and also make no initial contact an error
dmpoption,emat,no             ! Don't combine emat file for DANSYS
dmpoption,esav,no             ! Don't combine esav file for DANSYS
nldiag,cont,iter           ! print out contact info each equilibrium iteration
rescontrol,,none                 ! Do not keep any restart files
/com,****************************************************
/com,******************* SOLVE FOR LS 1 OF 1 ****************
esel,s,type,,2
nsle
sfe,all,1,pres,1,884439.242363837
sfe,all,2,pres,1,0.
sfe,all,3,pres,1,0.
nsel,all
esel,all
/nopr
/gopr
nsub,1,1,1
time,1.
outres,erase
outres,all,none
outres,nsol,all,
outres,rsol,all
outres,eangl,all
outres,etmp,all
outres,veng,all
outres,strs,all,
outres,epel,all,
outres,eppl,all,
outres,cont,all,
! *********** WB SOLVE COMMAND ***********
! check interactive state
*get,ANSINTER_,active,,int
*if,ANSINTER_,ne,0,then
/eof
*endif
solve
/com *************** Write FE CONNECTORS ********* 
CEWRITE,file,ce,,INTE
/com,****************************************************
/com,*************** FINISHED SOLVE FOR LS 1 *************
*get,_wallasol,active,,time,wall
/nopr
*get,_numnode,node,0,count
*get,_numelem,elem,0,count
*get, _MAXELEMNUM, elem, 0, NUM, MAX
*get, _MAXNODENUM, node, 0, NUM, MAX,,,INTERNAL
*get, _MAXELEMTYPE, etyp, 0, NUM, MAX
*get, _MAXREALCONST, real, 0, NUM, MAX
/gopr
*get,_PCGITER,active,,solu,cgiter
/post1
xmlo,ENCODING,ISO-8859-1
xmlo,parm
/xml,parm,xml
fini
/gopr
*get,_walldone,active,,time,wall
_preptime=(_wallbsol-_wallstrt)*3600
_solvtime=(_wallasol-_wallbsol)*3600
_posttime=(_walldone-_wallasol)*3600
_totaltim=(_walldone-_wallstrt)*3600
*get,_dlbratio,active,0,solu,dlbr
*get,_combtime,active,0,solu,comb
*get,_ssmode,active,0,solu,ssmm
*get,_ndofs,active,0,solu,ndof
/com,--- Total number of nodes = %_numnode%
/com,--- Total number of elements = %_numelem%
/com,--- Element load balance ratio = %_dlbratio%
/com,--- Time to combine distributed files = %_combtime%
/com,--- Sparse memory mode = %_ssmode%
/com,--- Number of DOF = %_ndofs%
/wb,file,end               ! done with WB generated input
